72
-1.255 15.059999999999999 -0.7246666666666667 12.319333333333333 -1000.0 1000.0
B 0.0 0.0 0.0
N 0.0 2.8986666666666667 0.0
B 0.0 4.348 0.0
N 0.0 7.246666666666666 0.0
B 0.0 8.696 0.0
N 0.0 11.594666666666667 0.0
N 1.255 0.7246666666666667 0.0
B 1.255 2.174 0.0
N 1.255 5.072666666666667 0.0
B 1.255 6.521999999999999 0.0
N 1.255 9.420666666666667 0.0
B 1.255 10.87 0.0
B 2.51 0.0 0.0
N 2.51 2.8986666666666667 0.0
B 2.51 4.348 0.0
N 2.51 7.246666666666666 0.0
B 2.51 8.696 0.0
N 2.51 11.594666666666667 0.0
N 3.7649999999999997 0.7246666666666667 0.0
B 3.7649999999999997 2.174 0.0
N 3.7649999999999997 5.072666666666667 0.0
B 3.7649999999999997 6.521999999999999 0.0
N 3.7649999999999997 9.420666666666667 0.0
B 3.7649999999999997 10.87 0.0
B 5.02 0.0 0.0
N 5.02 2.8986666666666667 0.0
B 5.02 4.348 0.0
N 5.02 7.246666666666666 0.0
B 5.02 8.696 0.0
N 5.02 11.594666666666667 0.0
N 6.2749999999999995 0.7246666666666667 0.0
B 6.2749999999999995 2.174 0.0
N 6.2749999999999995 5.072666666666667 0.0
B 6.2749999999999995 6.521999999999999 0.0
N 6.2749999999999995 9.420666666666667 0.0
B 6.2749999999999995 10.87 0.0
B 7.529999999999999 0.0 0.0
N 7.529999999999999 2.8986666666666667 0.0
B 7.529999999999999 4.348 0.0
N 7.529999999999999 7.246666666666666 0.0
B 7.529999999999999 8.696 0.0
N 7.529999999999999 11.594666666666667 0.0
N 8.785 0.7246666666666667 0.0
B 8.785 2.174 0.0
N 8.785 5.072666666666667 0.0
B 8.785 6.521999999999999 0.0
N 8.785 9.420666666666667 0.0
B 8.785 10.87 0.0
B 10.04 0.0 0.0
N 10.04 2.8986666666666667 0.0
B 10.04 4.348 0.0
N 10.04 7.246666666666666 0.0
B 10.04 8.696 0.0
N 10.04 11.594666666666667 0.0
N 11.294999999999998 0.7246666666666667 0.0
B 11.294999999999998 2.174 0.0
N 11.294999999999998 5.072666666666667 0.0
B 11.294999999999998 6.521999999999999 0.0
N 11.294999999999998 9.420666666666667 0.0
B 11.294999999999998 10.87 0.0
B 12.549999999999999 0.0 0.0
N 12.549999999999999 2.8986666666666667 0.0
B 12.549999999999999 4.348 0.0
N 12.549999999999999 7.246666666666666 0.0
B 12.549999999999999 8.696 0.0
N 12.549999999999999 11.594666666666667 0.0
N 13.805 0.7246666666666667 0.0
B 13.805 2.174 0.0
N 13.805 5.072666666666667 0.0
B 13.805 6.521999999999999 0.0
N 13.805 9.420666666666667 0.0
B 13.805 10.87 0.0